compare_pyomo/pyomo_MPOPF-main/rawData/IEEE_123_other/dss_scripts/Loads.dss
New Load.load_3_a phases=1 Bus1=3.1 conn=wye kv=2.4 kw=40.0 kvar=40.0 Vminpu = 0.95 Vmaxpu = 1.05
New Load.load_4_b phases=1 Bus1=4.2 conn=wye kv=2.4 kw=20.0 kvar=20.0 Vminpu = 0.95 Vmaxpu = 1.05
New Load.load_6_c phases=1 Bus1=6.3 conn=wye kv=2.4 kw=40.0 kvar=40.0 Vminpu = 0.95 Vmaxpu = 1.05
New Load.load_7_c phases=1 Bus1=7.3 conn=wye kv=2.4 kw=20.0 kvar=20.0 Vminpu = 0.95 Vmaxpu = 1.05
New Load.load_8_c phases=1 Bus1=8.3 conn=wye kv=2.4 kw=40.0 kvar=40.0 Vminpu = 0.95 Vmaxpu = 1.05
New Load.load_9_a phases=1 Bus1=9.1 conn=wye kv=2.4 kw=20.0 kvar=20.0 Vminpu = 0.95 Vmaxpu = 1.05
New Load.load_11_a phases=1 Bus1=11.1 conn=wye kv=2.4 kw=40.0 kvar=40.0 Vminpu = 0.95 Vmaxpu = 1.05
New Load.load_12_a phases=1 Bus1=12.1 conn=wye kv=2.4 kw=20.0 kvar=20.0 Vminpu = 0.95 Vmaxpu = 1.05
New Load.load_13_a phases=1 Bus1=13.1 conn=wye kv=2.4 kw=40.0 kvar=40.0 Vminpu = 0.95 Vmaxpu = 1.05
New Load.load_14_b phases=1 Bus1=14.2 conn=wye kv=2.4 kw=20.0 kvar=20.0 Vminpu = 0.95 Vmaxpu = 1.05
New Load.load_18_c phases=1 Bus1=18.3 conn=wye kv=2.4 kw=40.0 kvar=40.0 Vminpu = 0.95 Vmaxpu = 1.05
New Load.load_19_c phases=1 Bus1=19.3 conn=wye kv=2.4 kw=20.0 kvar=20.0 Vminpu = 0.95 Vmaxpu = 1.05
New Load.load_21_a phases=1 Bus1=21.1 conn=wye kv=2.4 kw=40.0 kvar=40.0 Vminpu = 0.95 Vmaxpu = 1.05
New Load.load_22_a phases=1 Bus1=22.1 conn=wye kv=2.4 kw=40.0 kvar=40.0 Vminpu = 0.95 Vmaxpu = 1.05
New Load.load_24_b phases=1 Bus1=24.2 conn=wye kv=2.4 kw=40.0 kvar=40.0 Vminpu = 0.95 Vmaxpu = 1.05
New Load.load_26_c phases=1 Bus1=26.3 conn=wye kv=2.4 kw=40.0 kvar=40.0 Vminpu = 0.95 Vmaxpu = 1.05
New Load.load_30_a phases=1 Bus1=30.1 conn=wye kv=2.4 kw=40.0 kvar=40.0 Vminpu = 0.95 Vmaxpu = 1.05
New Load.load_31_a phases=1 Bus1=31.1 conn=wye kv=2.4 kw=40.0 kvar=40.0 Vminpu = 0.95 Vmaxpu = 1.05
New Load.load_32_c phases=1 Bus1=32.3 conn=wye kv=2.4 kw=40.0 kvar=40.0 Vminpu = 0.95 Vmaxpu = 1.05
New Load.load_33_c phases=1 Bus1=33.3 conn=wye kv=2.4 kw=20.0 kvar=20.0 Vminpu = 0.95 Vmaxpu = 1.05
New Load.load_34_c phases=1 Bus1=34.3 conn=wye kv=2.4 kw=20.0 kvar=20.0 Vminpu = 0.95 Vmaxpu = 1.05
New Load.load_35_a phases=1 Bus1=35.1 conn=wye kv=2.4 kw=40.0 kvar=40.0 Vminpu = 0.95 Vmaxpu = 1.05
New Load.load_36_c phases=1 Bus1=36.3 conn=wye kv=2.4 kw=40.0 kvar=40.0 Vminpu = 0.95 Vmaxpu = 1.05
New Load.load_37_a phases=1 Bus1=37.1 conn=wye kv=2.4 kw=40.0 kvar=40.0 Vminpu = 0.95 Vmaxpu = 1.05
New Load.load_39_a phases=1 Bus1=39.1 conn=wye kv=2.4 kw=40.0 kvar=40.0 Vminpu = 0.95 Vmaxpu = 1.05
New Load.load_40_b phases=1 Bus1=40.2 conn=wye kv=2.4 kw=40.0 kvar=40.0 Vminpu = 0.95 Vmaxpu = 1.05
New Load.load_41_b phases=1 Bus1=41.2 conn=wye kv=2.4 kw=20.0 kvar=20.0 Vminpu = 0.95 Vmaxpu = 1.05
New Load.load_43_c phases=1 Bus1=43.3 conn=wye kv=2.4 kw=20.0 kvar=20.0 Vminpu = 0.95 Vmaxpu = 1.05
New Load.load_44_a phases=1 Bus1=44.1 conn=wye kv=2.4 kw=20.0 kvar=20.0 Vminpu = 0.95 Vmaxpu = 1.05
New Load.load_45_b phases=1 Bus1=45.2 conn=wye kv=2.4 kw=40.0 kvar=40.0 Vminpu = 0.95 Vmaxpu = 1.05
New Load.load_47_a phases=1 Bus1=47.1 conn=wye kv=2.4 kw=20.0 kvar=20.0 Vminpu = 0.95 Vmaxpu = 1.05
New Load.load_48_a phases=1 Bus1=48.1 conn=wye kv=2.4 kw=20.0 kvar=20.0 Vminpu = 0.95 Vmaxpu = 1.05
New Load.load_49_a phases=1 Bus1=49.1 conn=wye kv=2.4 kw=35.0 kvar=35.0 Vminpu = 0.95 Vmaxpu = 1.05
New Load.load_49_b phases=1 Bus1=49.2 conn=wye kv=2.4 kw=35.0 kvar=35.0 Vminpu = 0.95 Vmaxpu = 1.05
New Load.load_49_c phases=1 Bus1=49.3 conn=wye kv=2.4 kw=35.0 kvar=35.0 Vminpu = 0.95 Vmaxpu = 1.05
New Load.load_50_a phases=1 Bus1=50.1 conn=wye kv=2.4 kw=70.0 kvar=70.0 Vminpu = 0.95 Vmaxpu = 1.05
New Load.load_50_b phases=1 Bus1=50.2 conn=wye kv=2.4 kw=70.0 kvar=70.0 Vminpu = 0.95 Vmaxpu = 1.05
New Load.load_50_c phases=1 Bus1=50.3 conn=wye kv=2.4 kw=70.0 kvar=70.0 Vminpu = 0.95 Vmaxpu = 1.05
New Load.load_51_a phases=1 Bus1=51.1 conn=wye kv=2.4 kw=35.0 kvar=35.0 Vminpu = 0.95 Vmaxpu = 1.05
New Load.load_51_b phases=1 Bus1=51.2 conn=wye kv=2.4 kw=70.0 kvar=70.0 Vminpu = 0.95 Vmaxpu = 1.05
New Load.load_51_c phases=1 Bus1=51.3 conn=wye kv=2.4 kw=35.0 kvar=35.0 Vminpu = 0.95 Vmaxpu = 1.05
New Load.load_52_c phases=1 Bus1=52.3 conn=wye kv=2.4 kw=40.0 kvar=40.0 Vminpu = 0.95 Vmaxpu = 1.05
New Load.load_53_a phases=1 Bus1=53.1 conn=wye kv=2.4 kw=20.0 kvar=20.0 Vminpu = 0.95 Vmaxpu = 1.05
New Load.load_54_a phases=1 Bus1=54.1 conn=wye kv=2.4 kw=40.0 kvar=40.0 Vminpu = 0.95 Vmaxpu = 1.05
New Load.load_55_a phases=1 Bus1=55.1 conn=wye kv=2.4 kw=40.0 kvar=40.0 Vminpu = 0.95 Vmaxpu = 1.05
New Load.load_57_a phases=1 Bus1=57.1 conn=wye kv=2.4 kw=20.0 kvar=20.0 Vminpu = 0.95 Vmaxpu = 1.05
New Load.load_58_b phases=1 Bus1=58.2 conn=wye kv=2.4 kw=20.0 kvar=20.0 Vminpu = 0.95 Vmaxpu = 1.05
New Load.load_60_b phases=1 Bus1=60.2 conn=wye kv=2.4 kw=40.0 kvar=40.0 Vminpu = 0.95 Vmaxpu = 1.05
New Load.load_61_b phases=1 Bus1=61.2 conn=wye kv=2.4 kw=20.0 kvar=20.0 Vminpu = 0.95 Vmaxpu = 1.05
New Load.load_62_a phases=1 Bus1=62.1 conn=wye kv=2.4 kw=20.0 kvar=20.0 Vminpu = 0.95 Vmaxpu = 1.05
New Load.load_64_c phases=1 Bus1=64.3 conn=wye kv=2.4 kw=40.0 kvar=40.0 Vminpu = 0.95 Vmaxpu = 1.05
New Load.load_65_a phases=1 Bus1=65.1 conn=wye kv=2.4 kw=40.0 kvar=40.0 Vminpu = 0.95 Vmaxpu = 1.05
New Load.load_66_b phases=1 Bus1=66.2 conn=wye kv=2.4 kw=75.0 kvar=75.0 Vminpu = 0.95 Vmaxpu = 1.05
New Load.load_67_a phases=1 Bus1=67.1 conn=wye kv=2.4 kw=35.0 kvar=35.0 Vminpu = 0.95 Vmaxpu = 1.05
New Load.load_67_b phases=1 Bus1=67.2 conn=wye kv=2.4 kw=35.0 kvar=35.0 Vminpu = 0.95 Vmaxpu = 1.05
New Load.load_67_c phases=1 Bus1=67.3 conn=wye kv=2.4 kw=70.0 kvar=70.0 Vminpu = 0.95 Vmaxpu = 1.05
New Load.load_68_c phases=1 Bus1=68.3 conn=wye kv=2.4 kw=75.0 kvar=75.0 Vminpu = 0.95 Vmaxpu = 1.05
New Load.load_70_a phases=1 Bus1=70.1 conn=wye kv=2.4 kw=20.0 kvar=20.0 Vminpu = 0.95 Vmaxpu = 1.05
New Load.load_71_a phases=1 Bus1=71.1 conn=wye kv=2.4 kw=40.0 kvar=40.0 Vminpu = 0.95 Vmaxpu = 1.05
New Load.load_72_a phases=1 Bus1=72.1 conn=wye kv=2.4 kw=20.0 kvar=20.0 Vminpu = 0.95 Vmaxpu = 1.05
New Load.load_73_a phases=1 Bus1=73.1 conn=wye kv=2.4 kw=40.0 kvar=40.0 Vminpu = 0.95 Vmaxpu = 1.05
New Load.load_75_c phases=1 Bus1=75.3 conn=wye kv=2.4 kw=40.0 kvar=40.0 Vminpu = 0.95 Vmaxpu = 1.05
New Load.load_76_c phases=1 Bus1=76.3 conn=wye kv=2.4 kw=40.0 kvar=40.0 Vminpu = 0.95 Vmaxpu = 1.05
New Load.load_77_c phases=1 Bus1=77.3 conn=wye kv=2.4 kw=40.0 kvar=40.0 Vminpu = 0.95 Vmaxpu = 1.05
New Load.load_78_a phases=1 Bus1=78.1 conn=wye kv=2.4 kw=105.0 kvar=105.0 Vminpu = 0.95 Vmaxpu = 1.05
New Load.load_78_b phases=1 Bus1=78.2 conn=wye kv=2.4 kw=70.0 kvar=70.0 Vminpu = 0.95 Vmaxpu = 1.05
New Load.load_78_c phases=1 Bus1=78.3 conn=wye kv=2.4 kw=70.0 kvar=70.0 Vminpu = 0.95 Vmaxpu = 1.05
New Load.load_79_b phases=1 Bus1=79.2 conn=wye kv=2.4 kw=40.0 kvar=40.0 Vminpu = 0.95 Vmaxpu = 1.05
New Load.load_81_a phases=1 Bus1=81.1 conn=wye kv=2.4 kw=40.0 kvar=40.0 Vminpu = 0.95 Vmaxpu = 1.05
New Load.load_82_b phases=1 Bus1=82.2 conn=wye kv=2.4 kw=40.0 kvar=40.0 Vminpu = 0.95 Vmaxpu = 1.05
New Load.load_84_a phases=1 Bus1=84.1 conn=wye kv=2.4 kw=40.0 kvar=40.0 Vminpu = 0.95 Vmaxpu = 1.05
New Load.load_85_c phases=1 Bus1=85.3 conn=wye kv=2.4 kw=20.0 kvar=20.0 Vminpu = 0.95 Vmaxpu = 1.05
New Load.load_86_c phases=1 Bus1=86.3 conn=wye kv=2.4 kw=20.0 kvar=20.0 Vminpu = 0.95 Vmaxpu = 1.05
New Load.load_87_c phases=1 Bus1=87.3 conn=wye kv=2.4 kw=40.0 kvar=40.0 Vminpu = 0.95 Vmaxpu = 1.05
New Load.load_88_b phases=1 Bus1=88.2 conn=wye kv=2.4 kw=20.0 kvar=20.0 Vminpu = 0.95 Vmaxpu = 1.05
New Load.load_89_b phases=1 Bus1=89.2 conn=wye kv=2.4 kw=40.0 kvar=40.0 Vminpu = 0.95 Vmaxpu = 1.05
New Load.load_90_a phases=1 Bus1=90.1 conn=wye kv=2.4 kw=40.0 kvar=40.0 Vminpu = 0.95 Vmaxpu = 1.05
New Load.load_92_b phases=1 Bus1=92.2 conn=wye kv=2.4 kw=40.0 kvar=40.0 Vminpu = 0.95 Vmaxpu = 1.05
New Load.load_94_c phases=1 Bus1=94.3 conn=wye kv=2.4 kw=40.0 kvar=40.0 Vminpu = 0.95 Vmaxpu = 1.05
New Load.load_96_a phases=1 Bus1=96.1 conn=wye kv=2.4 kw=40.0 kvar=40.0 Vminpu = 0.95 Vmaxpu = 1.05
New Load.load_97_b phases=1 Bus1=97.2 conn=wye kv=2.4 kw=20.0 kvar=20.0 Vminpu = 0.95 Vmaxpu = 1.05
New Load.load_98_b phases=1 Bus1=98.2 conn=wye kv=2.4 kw=20.0 kvar=20.0 Vminpu = 0.95 Vmaxpu = 1.05
New Load.load_100_a phases=1 Bus1=100.1 conn=wye kv=2.4 kw=40.0 kvar=40.0 Vminpu = 0.95 Vmaxpu = 1.05
New Load.load_101_b phases=1 Bus1=101.2 conn=wye kv=2.4 kw=40.0 kvar=40.0 Vminpu = 0.95 Vmaxpu = 1.05
New Load.load_102_c phases=1 Bus1=102.3 conn=wye kv=2.4 kw=40.0 kvar=40.0 Vminpu = 0.95 Vmaxpu = 1.05
New Load.load_104_c phases=1 Bus1=104.3 conn=wye kv=2.4 kw=20.0 kvar=20.0 Vminpu = 0.95 Vmaxpu = 1.05
New Load.load_105_c phases=1 Bus1=105.3 conn=wye kv=2.4 kw=40.0 kvar=40.0 Vminpu = 0.95 Vmaxpu = 1.05
New Load.load_106_c phases=1 Bus1=106.3 conn=wye kv=2.4 kw=40.0 kvar=40.0 Vminpu = 0.95 Vmaxpu = 1.05
New Load.load_108_b phases=1 Bus1=108.2 conn=wye kv=2.4 kw=80.0 kvar=80.0 Vminpu = 0.95 Vmaxpu = 1.05
New Load.load_109_b phases=1 Bus1=109.2 conn=wye kv=2.4 kw=40.0 kvar=40.0 Vminpu = 0.95 Vmaxpu = 1.05
New Load.load_111_a phases=1 Bus1=111.1 conn=wye kv=2.4 kw=40.0 kvar=40.0 Vminpu = 0.95 Vmaxpu = 1.05
New Load.load_113_a phases=1 Bus1=113.1 conn=wye kv=2.4 kw=20.0 kvar=20.0 Vminpu = 0.95 Vmaxpu = 1.05
New Load.load_114_a phases=1 Bus1=114.1 conn=wye kv=2.4 kw=20.0 kvar=20.0 Vminpu = 0.95 Vmaxpu = 1.05
New Load.load_115_a phases=1 Bus1=115.1 conn=wye kv=2.4 kw=40.0 kvar=40.0 Vminpu = 0.95 Vmaxpu = 1.05
New Load.load_116_a phases=1 Bus1=116.1 conn=wye kv=2.4 kw=20.0 kvar=20.0 Vminpu = 0.95 Vmaxpu = 1.05
